/*--------------------------------*- C++ -*----------------------------------*\
| =========                 |                                                 |
| \\      /  F ield         | OpenFOAM: The Open Source CFD Toolbox           |
|  \\    /   O peration     | Version:  4.x                                   |
|   \\  /    A nd           | Web:      www.OpenFOAM.org                      |
|    \\/     M anipulation  |                                                 |
\*---------------------------------------------------------------------------*/
FoamFile
{
    version     2.0;
    format      ascii;
    class       extendedFeatureEdgeMesh;
    location    "constant/extendedFeatureEdgeMesh";
    object      channel.extendedFeatureEdgeMesh;
}
// * * * * * * * * * * * * * * * * * * * * * * * * * * * * * * * * * * * * * //

// points

276
(
(0.05 0.05 -0.1)
(-0.05 0.05 -0.1)
(0.05 -0.05 -0.1)
(-0.05 -0.05 -0.1)
(0.05 0.05 0.4)
(-0.05 0.05 0.4)
(0.05 -0.05 0.4)
(-0.05 -0.05 0.4)
(0.04 0.05 -0.1)
(0.03 0.05 -0.1)
(0.01 0.05 -0.1)
(0.02 0.05 -0.1)
(0 0.05 -0.1)
(-0.02 0.05 -0.1)
(-0.01 0.05 -0.1)
(-0.03 0.05 -0.1)
(-0.04 0.05 -0.1)
(-0.05 0.04 -0.1)
(0.05 0.02 -0.1)
(0.05 0.01 -0.1)
(0.05 0 -0.1)
(0.05 -0.03 -0.1)
(0.05 -0.04 -0.1)
(0.04 -0.05 -0.1)
(0.03 -0.05 -0.1)
(0.02 -0.05 -0.1)
(0.01 -0.05 -0.1)
(0.05 -0.02 -0.1)
(0.05 -0.01 -0.1)
(-0.05 0.01 -0.1)
(-0.05 0.02 -0.1)
(-0.05 0 -0.1)
(-0.05 -0.01 -0.1)
(0 -0.05 -0.1)
(-0.01 -0.05 -0.1)
(-0.02 -0.05 -0.1)
(-0.05 -0.04 -0.1)
(-0.03 -0.05 -0.1)
(-0.04 -0.05 -0.1)
(-0.05 -0.03 -0.1)
(-0.05 -0.02 -0.1)
(-0.05 0.03 -0.1)
(0.05 0.03 -0.1)
(0.05 0.04 -0.1)
(0.04 0.05 0.4)
(0.03 0.05 0.4)
(0.02 0.05 0.4)
(0.01 0.05 0.4)
(0 0.05 0.4)
(-0.01 0.05 0.4)
(-0.02 0.05 0.4)
(-0.03 0.05 0.4)
(-0.04 0.05 0.4)
(-0.05 0.04 0.4)
(0.05 0.01 0.4)
(0.05 0.02 0.4)
(0.05 0 0.4)
(0.05 -0.04 0.4)
(0.05 -0.03 0.4)
(0.04 -0.05 0.4)
(0.02 -0.05 0.4)
(0.03 -0.05 0.4)
(0.01 -0.05 0.4)
(0.05 -0.02 0.4)
(0.05 -0.01 0.4)
(-0.05 0.02 0.4)
(-0.05 0.01 0.4)
(-0.05 0 0.4)
(-0.05 -0.01 0.4)
(-0.01 -0.05 0.4)
(0 -0.05 0.4)
(-0.02 -0.05 0.4)
(-0.05 -0.04 0.4)
(-0.04 -0.05 0.4)
(-0.03 -0.05 0.4)
(-0.05 -0.02 0.4)
(-0.05 -0.03 0.4)
(-0.05 0.03 0.4)
(0.05 0.03 0.4)
(0.05 0.04 0.4)
(0.05 0.05 0.39)
(0.05 0.05 0.38)
(-0.05 0.05 0.38)
(-0.05 0.05 0.39)
(-0.05 0.05 0.36)
(-0.05 0.05 0.37)
(-0.05 0.05 0.34)
(-0.05 0.05 0.35)
(-0.05 0.05 0.32)
(-0.05 0.05 0.33)
(0.05 0.05 0.25)
(0.05 0.05 0.24)
(0.05 0.05 0.22)
(0.05 0.05 0.21)
(0.05 0.05 0.23)
(-0.05 0.05 0.3)
(-0.05 0.05 0.31)
(-0.05 0.05 0.28)
(-0.05 0.05 0.29)
(-0.05 0.05 0.24)
(-0.05 0.05 0.25)
(-0.05 0.05 0.26)
(-0.05 0.05 0.27)
(-0.05 0.05 0.2)
(-0.05 0.05 0.21)
(-0.05 0.05 0.22)
(-0.05 0.05 0.16)
(-0.05 0.05 0.17)
(-0.05 0.05 0.18)
(-0.05 0.05 0.19)
(-0.05 0.05 0.23)
(0.05 0.05 0.26)
(0.05 0.05 0.3)
(0.05 0.05 0.29)
(0.05 0.05 0.28)
(0.05 0.05 0.27)
(0.05 0.05 0.34)
(0.05 0.05 0.33)
(0.05 0.05 0.37)
(0.05 0.05 0.36)
(0.05 0.05 0.35)
(0.05 0.05 0.32)
(0.05 0.05 0.31)
(0.05 0.05 0.09)
(0.05 0.05 0.08)
(0.05 0.05 0.07)
(0.05 0.05 0.06)
(0.05 0.05 0.05)
(-0.05 0.05 0.12)
(-0.05 0.05 0.13)
(-0.05 0.05 0.14)
(-0.05 0.05 0.08)
(-0.05 0.05 0.09)
(-0.05 0.05 0.1)
(-0.05 0.05 0.11)
(-0.05 0.05 0.04)
(-0.05 0.05 0.05)
(-0.05 0.05 0.06)
(-0.05 0.05 -1.38778e-17)
(-0.05 0.05 0.01)
(-0.05 0.05 0.02)
(-0.05 0.05 0.03)
(-0.05 0.05 0.07)
(0.05 0.05 -0.07)
(0.05 0.05 -0.08)
(0.05 0.05 -0.09)
(-0.05 0.05 -0.02)
(-0.05 0.05 -0.01)
(-0.05 0.05 -0.04)
(-0.05 0.05 -0.03)
(-0.05 0.05 -0.06)
(-0.05 0.05 -0.05)
(-0.05 0.05 -0.08)
(-0.05 0.05 -0.07)
(-0.05 0.05 -0.09)
(0.05 0.05 -0.03)
(0.05 0.05 -0.04)
(0.05 0.05 -0.05)
(0.05 0.05 -0.06)
(0.05 0.05 0.04)
(0.05 0.05 0.03)
(0.05 0.05 0.02)
(0.05 0.05 0.01)
(0.05 0.05 -1.38778e-17)
(0.05 0.05 -0.01)
(0.05 0.05 -0.02)
(-0.05 0.05 0.15)
(0.05 0.05 0.13)
(0.05 0.05 0.12)
(0.05 0.05 0.11)
(0.05 0.05 0.1)
(0.05 0.05 0.2)
(0.05 0.05 0.18)
(0.05 0.05 0.17)
(0.05 0.05 0.19)
(0.05 0.05 0.16)
(0.05 0.05 0.15)
(0.05 0.05 0.14)
(-0.05 -0.05 0.38)
(-0.05 -0.05 0.39)
(-0.05 -0.05 0.24)
(-0.05 -0.05 0.25)
(-0.05 -0.05 0.21)
(-0.05 -0.05 0.22)
(-0.05 -0.05 0.23)
(-0.05 -0.05 0.26)
(-0.05 -0.05 0.29)
(-0.05 -0.05 0.3)
(-0.05 -0.05 0.28)
(-0.05 -0.05 0.27)
(-0.05 -0.05 0.33)
(-0.05 -0.05 0.34)
(-0.05 -0.05 0.37)
(-0.05 -0.05 0.36)
(-0.05 -0.05 0.35)
(-0.05 -0.05 0.32)
(-0.05 -0.05 0.31)
(-0.05 -0.05 0.08)
(-0.05 -0.05 0.09)
(-0.05 -0.05 0.07)
(-0.05 -0.05 0.06)
(-0.05 -0.05 0.05)
(-0.05 -0.05 -0.08)
(-0.05 -0.05 -0.07)
(-0.05 -0.05 -0.09)
(-0.05 -0.05 -0.04)
(-0.05 -0.05 -0.03)
(-0.05 -0.05 -0.05)
(-0.05 -0.05 -0.06)
(-0.05 -0.05 0.04)
(-0.05 -0.05 0.03)
(-0.05 -0.05 0.02)
(-0.05 -0.05 0.01)
(-0.05 -0.05 -1.38778e-17)
(-0.05 -0.05 -0.01)
(-0.05 -0.05 -0.02)
(-0.05 -0.05 0.12)
(-0.05 -0.05 0.13)
(-0.05 -0.05 0.11)
(-0.05 -0.05 0.1)
(-0.05 -0.05 0.2)
(-0.05 -0.05 0.17)
(-0.05 -0.05 0.18)
(-0.05 -0.05 0.19)
(-0.05 -0.05 0.16)
(-0.05 -0.05 0.14)
(-0.05 -0.05 0.15)
(0.05 -0.05 0.38)
(0.05 -0.05 0.39)
(0.05 -0.05 0.24)
(0.05 -0.05 0.25)
(0.05 -0.05 0.21)
(0.05 -0.05 0.22)
(0.05 -0.05 0.23)
(0.05 -0.05 0.26)
(0.05 -0.05 0.29)
(0.05 -0.05 0.3)
(0.05 -0.05 0.28)
(0.05 -0.05 0.27)
(0.05 -0.05 0.33)
(0.05 -0.05 0.34)
(0.05 -0.05 0.37)
(0.05 -0.05 0.36)
(0.05 -0.05 0.35)
(0.05 -0.05 0.32)
(0.05 -0.05 0.31)
(0.05 -0.05 0.08)
(0.05 -0.05 0.09)
(0.05 -0.05 0.07)
(0.05 -0.05 0.06)
(0.05 -0.05 0.05)
(0.05 -0.05 -0.08)
(0.05 -0.05 -0.07)
(0.05 -0.05 -0.09)
(0.05 -0.05 -0.04)
(0.05 -0.05 -0.03)
(0.05 -0.05 -0.05)
(0.05 -0.05 -0.06)
(0.05 -0.05 0.04)
(0.05 -0.05 0.03)
(0.05 -0.05 0.02)
(0.05 -0.05 0.01)
(0.05 -0.05 -1.38778e-17)
(0.05 -0.05 -0.01)
(0.05 -0.05 -0.02)
(0.05 -0.05 0.12)
(0.05 -0.05 0.13)
(0.05 -0.05 0.11)
(0.05 -0.05 0.1)
(0.05 -0.05 0.2)
(0.05 -0.05 0.17)
(0.05 -0.05 0.18)
(0.05 -0.05 0.19)
(0.05 -0.05 0.16)
(0.05 -0.05 0.14)
(0.05 -0.05 0.15)
)

// edges

280
(
(8 0)
(9 8)
(10 11)
(12 10)
(11 9)
(13 14)
(15 13)
(16 15)
(1 16)
(17 1)
(14 12)
(18 19)
(19 20)
(21 22)
(2 23)
(22 2)
(24 25)
(25 26)
(23 24)
(27 21)
(20 28)
(28 27)
(29 30)
(31 29)
(32 31)
(33 34)
(34 35)
(3 36)
(37 38)
(38 3)
(35 37)
(39 40)
(40 32)
(36 39)
(26 33)
(30 41)
(41 17)
(42 18)
(43 42)
(0 43)
(4 44)
(44 45)
(46 47)
(47 48)
(45 46)
(49 50)
(50 51)
(51 52)
(52 5)
(5 53)
(48 49)
(54 55)
(56 54)
(57 58)
(59 6)
(6 57)
(60 61)
(62 60)
(61 59)
(58 63)
(64 56)
(63 64)
(65 66)
(66 67)
(67 68)
(69 70)
(71 69)
(72 7)
(73 74)
(7 73)
(74 71)
(75 76)
(68 75)
(76 72)
(70 62)
(77 65)
(53 77)
(55 78)
(78 79)
(79 4)
(80 81)
(4 80)
(82 83)
(84 85)
(85 82)
(86 87)
(88 89)
(89 86)
(87 84)
(83 5)
(90 91)
(92 93)
(94 92)
(91 94)
(95 96)
(97 98)
(98 95)
(99 100)
(100 101)
(101 102)
(102 97)
(103 104)
(104 105)
(106 107)
(107 108)
(108 109)
(109 103)
(105 110)
(110 99)
(96 88)
(111 90)
(112 113)
(113 114)
(115 111)
(114 115)
(116 117)
(81 118)
(118 119)
(120 116)
(119 120)
(117 121)
(122 112)
(121 122)
(123 124)
(124 125)
(125 126)
(126 127)
(128 129)
(129 130)
(131 132)
(132 133)
(133 134)
(134 128)
(135 136)
(136 137)
(138 139)
(139 140)
(140 141)
(141 135)
(137 142)
(142 131)
(143 144)
(144 145)
(145 0)
(146 147)
(148 149)
(149 146)
(150 151)
(152 153)
(153 150)
(151 148)
(1 154)
(154 152)
(147 138)
(155 156)
(156 157)
(157 158)
(158 143)
(127 159)
(159 160)
(160 161)
(161 162)
(162 163)
(163 164)
(164 165)
(165 155)
(130 166)
(166 106)
(167 168)
(168 169)
(169 170)
(170 123)
(93 171)
(172 173)
(174 172)
(171 174)
(173 175)
(176 177)
(177 167)
(175 176)
(178 179)
(179 7)
(180 181)
(182 183)
(183 184)
(184 180)
(181 185)
(186 187)
(188 186)
(185 189)
(189 188)
(190 191)
(192 178)
(193 192)
(191 194)
(194 193)
(195 190)
(187 196)
(196 195)
(197 198)
(199 197)
(200 199)
(201 200)
(202 203)
(204 202)
(3 204)
(205 206)
(207 205)
(208 207)
(203 208)
(209 201)
(210 209)
(211 210)
(212 211)
(213 212)
(214 213)
(215 214)
(206 215)
(216 217)
(218 216)
(219 218)
(198 219)
(220 182)
(221 222)
(222 223)
(223 220)
(224 221)
(225 226)
(217 225)
(226 224)
(227 228)
(228 6)
(229 230)
(231 232)
(232 233)
(233 229)
(230 234)
(235 236)
(237 235)
(234 238)
(238 237)
(239 240)
(241 227)
(242 241)
(240 243)
(243 242)
(244 239)
(236 245)
(245 244)
(246 247)
(248 246)
(249 248)
(250 249)
(251 252)
(253 251)
(2 253)
(254 255)
(256 254)
(257 256)
(252 257)
(258 250)
(259 258)
(260 259)
(261 260)
(262 261)
(263 262)
(264 263)
(255 264)
(265 266)
(267 265)
(268 267)
(247 268)
(269 231)
(270 271)
(271 272)
(272 269)
(273 270)
(274 275)
(266 274)
(275 273)
)

// concaveStart mixedStart nonFeatureStart
8 8 8
// internalStart flatStart openStart multipleStart
280 280 280 280
// normals

560
(
(0 0 -1)
(0 1 0)
(-0 0 -1)
(0 1 0)
(0 0 -1)
(0 1 0)
(0 0 -1)
(0 1 0)
(0 0 -1)
(0 1 0)
(0 0 -1)
(0 1 0)
(0 0 -1)
(0 1 0)
(0 0 -1)
(0 1 0)
(0 0 -1)
(0 1 0)
(0 0 -1)
(-1 0 -0)
(0 0 -1)
(0 1 0)
(0 0 -1)
(1 0 0)
(0 -0 -1)
(1 0 0)
(0 -0 -1)
(1 0 0)
(0 0 -1)
(0 -1 0)
(0 -0 -1)
(1 0 0)
(0 0 -1)
(0 -1 -0)
(0 0 -1)
(0 -1 -0)
(0 0 -1)
(0 -1 0)
(0 0 -1)
(1 0 0)
(0 -0 -1)
(1 0 0)
(0 0 -1)
(1 0 0)
(0 0 -1)
(-1 0 0)
(0 0 -1)
(-1 0 -0)
(0 0 -1)
(-1 0 -0)
(0 0 -1)
(0 -1 -0)
(0 0 -1)
(0 -1 0)
(0 0 -1)
(-1 0 0)
(0 0 -1)
(0 -1 0)
(0 0 -1)
(0 -1 -0)
(0 0 -1)
(0 -1 0)
(0 0 -1)
(-1 0 -0)
(0 0 -1)
(-1 0 -0)
(0 0 -1)
(-1 0 0)
(0 0 -1)
(0 -1 -0)
(0 0 -1)
(-1 0 0)
(0 0 -1)
(-1 0 0)
(0 0 -1)
(1 0 0)
(0 -0 -1)
(1 0 0)
(0 -0 -1)
(1 0 0)
(-0 0 1)
(0 1 0)
(0 0 1)
(0 1 0)
(-0 0 1)
(0 1 -0)
(-0 0 1)
(0 1 -0)
(-0 0 1)
(0 1 -0)
(-0 0 1)
(0 1 0)
(-0 0 1)
(0 1 0)
(-0 0 1)
(0 1 0)
(-0 0 1)
(0 1 -0)
(0 0 1)
(-1 0 0)
(-0 0 1)
(0 1 -0)
(0 -0 1)
(1 -0 0)
(0 0 1)
(1 0 -0)
(0 0 1)
(1 -0 0)
(0 0 1)
(-0 -1 0)
(0 0 1)
(1 -0 0)
(0 0 1)
(0 -1 0)
(0 0 1)
(0 -1 0)
(0 0 1)
(-0 -1 0)
(0 -0 1)
(1 0 -0)
(0 0 1)
(1 0 -0)
(-0 0 1)
(1 0 -0)
(0 0 1)
(-1 0 0)
(0 0 1)
(-1 0 0)
(0 0 1)
(-1 0 0)
(0 0 1)
(0 -1 0)
(0 0 1)
(-0 -1 0)
(0 0 1)
(-1 0 0)
(0 0 1)
(-0 -1 0)
(0 0 1)
(0 -1 0)
(0 0 1)
(-0 -1 0)
(0 0 1)
(-1 0 0)
(0 0 1)
(-1 0 0)
(0 0 1)
(-1 0 0)
(0 0 1)
(0 -1 0)
(0 0 1)
(-1 0 0)
(0 0 1)
(-1 0 0)
(-0 0 1)
(1 -0 0)
(0 0 1)
(1 -0 0)
(0 0 1)
(1 0 -0)
(-0 1 0)
(1 0 0)
(-0 1 0)
(1 0 0)
(0 1 0)
(-1 0 -0)
(0 1 0)
(-1 0 -0)
(0 1 0)
(-1 0 -0)
(0 1 0)
(-1 0 -0)
(0 1 0)
(-1 0 -0)
(0 1 0)
(-1 0 -0)
(0 1 0)
(-1 0 -0)
(0 1 0)
(-1 0 -0)
(-0 1 0)
(1 -0 0)
(0 1 0)
(1 -0 0)
(-0 1 0)
(1 -0 0)
(-0 1 0)
(1 -0 0)
(0 1 0)
(-1 0 -0)
(0 1 0)
(-1 0 -0)
(0 1 0)
(-1 0 -0)
(0 1 0)
(-1 0 0)
(0 1 0)
(-1 0 0)
(0 1 0)
(-1 0 0)
(0 1 0)
(-1 0 0)
(0 1 0)
(-1 0 0)
(0 1 0)
(-1 0 0)
(0 1 0)
(-1 0 0)
(0 1 0)
(-1 0 0)
(0 1 0)
(-1 0 0)
(0 1 0)
(-1 0 0)
(0 1 0)
(-1 0 0)
(0 1 0)
(-1 0 0)
(0 1 0)
(-1 0 -0)
(-0 1 0)
(1 -0 0)
(-0 1 0)
(1 0 0)
(-0 1 0)
(1 0 0)
(-0 1 0)
(1 -0 0)
(-0 1 0)
(1 -0 0)
(-0 1 0)
(1 0 0)
(-0 1 0)
(1 0 0)
(-0 1 0)
(1 0 0)
(-0 1 0)
(1 0 0)
(-0 1 0)
(1 0 0)
(-0 1 0)
(1 0 0)
(-0 1 0)
(1 0 0)
(-0 1 0)
(1 0 0)
(-0 1 0)
(1 0 -0)
(-0 1 0)
(1 0 -0)
(-0 1 0)
(1 0 -0)
(-0 1 0)
(1 0 -0)
(0 1 0)
(-1 0 0)
(0 1 0)
(-1 0 0)
(0 1 0)
(-1 0 0)
(0 1 0)
(-1 0 0)
(0 1 0)
(-1 0 0)
(0 1 0)
(-1 0 0)
(0 1 0)
(-1 0 0)
(0 1 0)
(-1 0 0)
(0 1 0)
(-1 0 -0)
(0 1 0)
(-1 0 0)
(0 1 0)
(-1 0 0)
(0 1 0)
(-1 0 0)
(0 1 0)
(-1 0 0)
(0 1 0)
(-1 0 0)
(-0 1 0)
(1 0 0)
(-0 1 0)
(1 0 0)
(-0 1 0)
(1 0 0)
(0 1 0)
(-1 0 -0)
(0 1 0)
(-1 0 -0)
(0 1 0)
(-1 0 0)
(0 1 0)
(-1 0 -0)
(0 1 0)
(-1 0 -0)
(0 1 0)
(-1 0 0)
(0 1 0)
(-1 0 0)
(0 1 0)
(-1 0 -0)
(0 1 0)
(-1 0 -0)
(0 1 0)
(-1 0 0)
(-0 1 0)
(1 0 0)
(-0 1 0)
(1 0 -0)
(-0 1 0)
(1 0 0)
(-0 1 0)
(1 0 -0)
(-0 1 0)
(1 0 -0)
(-0 1 0)
(1 0 -0)
(-0 1 0)
(1 0 -0)
(-0 1 0)
(1 0 -0)
(-0 1 0)
(1 0 0)
(-0 1 0)
(1 0 -0)
(-0 1 0)
(1 0 0)
(-0 1 0)
(1 0 -0)
(0 1 0)
(-1 0 0)
(0 1 0)
(-1 0 0)
(0 1 0)
(1 0 -0)
(0 1 0)
(1 0 -0)
(-0 1 0)
(1 0 -0)
(-0 1 0)
(1 0 -0)
(-0 1 0)
(1 -0 0)
(0 1 -0)
(1 -0 0)
(-0 1 0)
(1 -0 0)
(-0 1 0)
(1 -0 0)
(-0 1 0)
(1 -0 0)
(0 1 0)
(1 0 -0)
(-0 1 0)
(1 0 -0)
(-0 1 0)
(1 -0 0)
(-1 -0 0)
(0 -1 0)
(-1 -0 0)
(0 -1 0)
(-1 -0 0)
(-0 -1 0)
(-1 0 0)
(-0 -1 0)
(-1 -0 0)
(-0 -1 0)
(-1 -0 0)
(-0 -1 0)
(-1 -0 0)
(-0 -1 0)
(-1 -0 0)
(0 -1 0)
(-1 -0 0)
(0 -1 0)
(-1 -0 0)
(-0 -1 0)
(-1 -0 0)
(-0 -1 0)
(-1 -0 0)
(0 -1 0)
(-1 -0 0)
(0 -1 0)
(-1 -0 0)
(0 -1 0)
(-1 -0 0)
(0 -1 0)
(-1 -0 0)
(0 -1 0)
(-1 -0 0)
(0 -1 0)
(-1 -0 0)
(0 -1 0)
(-1 -0 0)
(0 -1 0)
(-1 -0 0)
(0 -1 0)
(-1 -0 0)
(0 -1 0)
(-1 -0 0)
(0 -1 0)
(-1 -0 0)
(0 -1 0)
(-1 -0 0)
(0 -1 0)
(-1 -0 0)
(0 -1 0)
(-1 -0 0)
(0 -1 0)
(-1 -0 0)
(0 -1 0)
(-1 -0 0)
(0 -1 0)
(-1 -0 0)
(0 -1 0)
(-1 -0 0)
(0 -1 0)
(-1 -0 0)
(0 -1 0)
(-1 -0 0)
(0 -1 0)
(-1 -0 0)
(0 -1 0)
(-1 -0 0)
(0 -1 0)
(-1 -0 0)
(0 -1 0)
(-1 -0 0)
(0 -1 0)
(-1 -0 0)
(0 -1 0)
(-1 -0 0)
(0 -1 0)
(-1 0 0)
(0 -1 0)
(-1 0 0)
(0 -1 0)
(-1 -0 0)
(0 -1 0)
(-1 -0 0)
(0 -1 0)
(-1 -0 0)
(-0 -1 0)
(-1 0 0)
(-0 -1 0)
(-1 -0 0)
(-0 -1 0)
(-1 -0 0)
(-0 -1 0)
(-1 -0 0)
(-0 -1 0)
(-1 0 0)
(0 -1 0)
(-1 -0 0)
(0 -1 0)
(-1 -0 0)
(-0 -1 0)
(0 -1 0)
(1 0 0)
(0 -1 0)
(1 0 0)
(0 -1 0)
(1 0 0)
(0 -1 -0)
(1 0 0)
(0 -1 0)
(1 0 0)
(0 -1 0)
(1 0 0)
(0 -1 0)
(1 0 0)
(0 -1 0)
(1 0 0)
(0 -1 0)
(1 0 0)
(0 -1 0)
(1 0 0)
(0 -1 0)
(1 0 0)
(0 -1 0)
(1 0 0)
(0 -1 0)
(1 0 0)
(0 -1 0)
(1 0 0)
(0 -1 0)
(1 0 0)
(0 -1 0)
(1 0 0)
(0 -1 0)
(1 0 0)
(0 -1 0)
(1 0 0)
(0 -1 0)
(1 0 0)
(0 -1 0)
(1 0 0)
(0 -1 0)
(1 0 0)
(0 -1 0)
(1 0 0)
(0 -1 0)
(1 0 0)
(0 -1 0)
(1 0 0)
(0 -1 0)
(1 0 0)
(0 -1 0)
(1 0 0)
(0 -1 0)
(1 0 0)
(0 -1 0)
(1 0 0)
(0 -1 0)
(1 0 0)
(0 -1 0)
(1 0 0)
(0 -1 0)
(1 0 0)
(0 -1 0)
(1 0 0)
(0 -1 0)
(1 0 0)
(0 -1 0)
(1 0 0)
(0 -1 0)
(1 0 0)
(0 -1 0)
(1 0 0)
(0 -1 0)
(1 0 0)
(0 -1 0)
(1 0 0)
(0 -1 -0)
(1 0 0)
(0 -1 -0)
(1 0 0)
(0 -1 0)
(1 0 0)
(0 -1 0)
(1 0 0)
(0 -1 0)
(1 0 0)
(0 -1 0)
(1 0 0)
(0 -1 0)
(1 0 0)
(0 -1 0)
(1 0 0)
(0 -1 0)
(1 0 0)
(0 -1 0)
(1 0 0)
(0 -1 0)
(1 0 0)
(0 -1 0)
(1 0 0)
)

// normal volume types

560
(
0
0
0
0
0
0
0
0
0
0
0
0
0
0
0
0
0
0
0
0
0
0
0
0
0
0
0
0
0
0
0
0
0
0
0
0
0
0
0
0
0
0
0
0
0
0
0
0
0
0
0
0
0
0
0
0
0
0
0
0
0
0
0
0
0
0
0
0
0
0
0
0
0
0
0
0
0
0
0
0
0
0
0
0
0
0
0
0
0
0
0
0
0
0
0
0
0
0
0
0
0
0
0
0
0
0
0
0
0
0
0
0
0
0
0
0
0
0
0
0
0
0
0
0
0
0
0
0
0
0
0
0
0
0
0
0
0
0
0
0
0
0
0
0
0
0
0
0
0
0
0
0
0
0
0
0
0
0
0
0
0
0
0
0
0
0
0
0
0
0
0
0
0
0
0
0
0
0
0
0
0
0
0
0
0
0
0
0
0
0
0
0
0
0
0
0
0
0
0
0
0
0
0
0
0
0
0
0
0
0
0
0
0
0
0
0
0
0
0
0
0
0
0
0
0
0
0
0
0
0
0
0
0
0
0
0
0
0
0
0
0
0
0
0
0
0
0
0
0
0
0
0
0
0
0
0
0
0
0
0
0
0
0
0
0
0
0
0
0
0
0
0
0
0
0
0
0
0
0
0
0
0
0
0
0
0
0
0
0
0
0
0
0
0
0
0
0
0
0
0
0
0
0
0
0
0
0
0
0
0
0
0
0
0
0
0
0
0
0
0
0
0
0
0
0
0
0
0
0
0
0
0
0
0
0
0
0
0
0
0
0
0
0
0
0
0
0
0
0
0
0
0
0
0
0
0
0
0
0
0
0
0
0
0
0
0
0
0
0
0
0
0
0
0
0
0
0
0
0
0
0
0
0
0
0
0
0
0
0
0
0
0
0
0
0
0
0
0
0
0
0
0
0
0
0
0
0
0
0
0
0
0
0
0
0
0
0
0
0
0
0
0
0
0
0
0
0
0
0
0
0
0
0
0
0
0
0
0
0
0
0
0
0
0
0
0
0
0
0
0
0
0
0
0
0
0
0
0
0
0
0
0
0
0
0
0
0
0
0
0
0
0
0
0
0
0
0
0
0
0
0
0
0
0
0
0
0
0
0
0
0
0
0
0
0
0
0
0
0
0
0
0
0
0
0
0
0
0
0
0
0
0
0
0
0
0
0
0
0
0
0
0
0
0
0
0
0
0
0
0
0
0
0
0
0
0
0
0
0
0
0
0
0
0
0
0
0
0
0
0
0
0
0
0
0
0
0
0
0
0
)

// normalDirections

280
(
2(1 -1)
2(1 -1)
2(1 -1)
2(1 -1)
2(1 -1)
2(1 -1)
2(1 -1)
2(1 -1)
2(1 -1)
2(1 -1)
2(1 -1)
2(1 -1)
2(1 -1)
2(1 -1)
2(1 -1)
2(1 -1)
2(1 -1)
2(1 -1)
2(1 -1)
2(1 -1)
2(1 -1)
2(1 -1)
2(1 -1)
2(1 -1)
2(1 -1)
2(1 -1)
2(1 -1)
2(1 -1)
2(1 -1)
2(1 -1)
2(1 -1)
2(1 -1)
2(1 -1)
2(1 -1)
2(1 -1)
2(1 -1)
2(1 -1)
2(1 -1)
2(1 -1)
2(1 -1)
2(1 -1)
2(1 -1)
2(1 -1)
2(1 -1)
2(1 -1)
2(1 -1)
2(1 -1)
2(1 -1)
2(1 -1)
2(1 -1)
2(1 -1)
2(1 -1)
2(1 -1)
2(1 -1)
2(1 -1)
2(1 -1)
2(1 -1)
2(1 -1)
2(1 -1)
2(1 -1)
2(1 -1)
2(1 -1)
2(1 -1)
2(1 -1)
2(1 -1)
2(1 -1)
2(1 -1)
2(1 -1)
2(1 -1)
2(1 -1)
2(1 -1)
2(1 -1)
2(1 -1)
2(1 -1)
2(1 -1)
2(1 -1)
2(1 -1)
2(1 -1)
2(1 -1)
2(1 -1)
2(1 -1)
2(1 -1)
2(1 -1)
2(1 -1)
2(1 -1)
2(1 -1)
2(1 -1)
2(1 -1)
2(1 -1)
2(1 -1)
2(1 -1)
2(1 -1)
2(1 -1)
2(1 -1)
2(1 -1)
2(1 -1)
2(1 -1)
2(1 -1)
2(1 -1)
2(1 -1)
2(1 -1)
2(1 -1)
2(1 -1)
2(1 -1)
2(1 -1)
2(1 -1)
2(1 -1)
2(1 -1)
2(1 -1)
2(1 -1)
2(1 -1)
2(1 -1)
2(1 -1)
2(1 -1)
2(1 -1)
2(1 -1)
2(1 -1)
2(1 -1)
2(1 -1)
2(1 -1)
2(1 -1)
2(1 -1)
2(1 -1)
2(1 -1)
2(1 -1)
2(1 -1)
2(1 -1)
2(1 -1)
2(1 -1)
2(1 -1)
2(1 -1)
2(1 -1)
2(1 -1)
2(1 -1)
2(1 -1)
2(1 -1)
2(1 -1)
2(1 -1)
2(1 -1)
2(1 -1)
2(1 -1)
2(1 -1)
2(1 -1)
2(1 -1)
2(1 -1)
2(1 -1)
2(1 -1)
2(1 -1)
2(1 -1)
2(1 -1)
2(1 -1)
2(1 -1)
2(1 -1)
2(1 -1)
2(1 -1)
2(1 -1)
2(1 -1)
2(1 -1)
2(1 -1)
2(1 -1)
2(1 -1)
2(1 -1)
2(1 -1)
2(1 -1)
2(1 -1)
2(1 -1)
2(1 -1)
2(1 -1)
2(1 -1)
2(1 -1)
2(1 -1)
2(1 -1)
2(1 -1)
2(1 -1)
2(1 -1)
2(1 -1)
2(1 -1)
2(1 -1)
2(1 -1)
2(1 -1)
2(1 -1)
2(1 -1)
2(1 -1)
2(1 -1)
2(1 -1)
2(1 -1)
2(1 -1)
2(1 -1)
2(1 -1)
2(1 -1)
2(1 -1)
2(1 -1)
2(1 -1)
2(1 -1)
2(1 -1)
2(1 -1)
2(1 -1)
2(1 -1)
2(1 -1)
2(1 -1)
2(1 -1)
2(1 -1)
2(1 -1)
2(1 -1)
2(1 -1)
2(1 -1)
2(1 -1)
2(1 -1)
2(1 -1)
2(1 -1)
2(1 -1)
2(1 -1)
2(1 -1)
2(1 -1)
2(1 -1)
2(1 -1)
2(1 -1)
2(1 -1)
2(1 -1)
2(1 -1)
2(1 -1)
2(1 -1)
2(1 -1)
2(1 -1)
2(1 -1)
2(1 -1)
2(1 -1)
2(1 -1)
2(1 -1)
2(1 -1)
2(1 -1)
2(1 -1)
2(1 -1)
2(1 -1)
2(1 -1)
2(1 -1)
2(1 -1)
2(1 -1)
2(1 -1)
2(1 -1)
2(1 -1)
2(1 -1)
2(1 -1)
2(1 -1)
2(1 -1)
2(1 -1)
2(1 -1)
2(1 -1)
2(1 -1)
2(1 -1)
2(1 -1)
2(1 -1)
2(1 -1)
2(1 -1)
2(1 -1)
2(1 -1)
2(1 -1)
2(1 -1)
2(1 -1)
2(1 -1)
2(1 -1)
2(1 -1)
2(1 -1)
2(1 -1)
2(1 -1)
2(1 -1)
2(1 -1)
2(1 -1)
2(1 -1)
2(1 -1)
2(1 -1)
2(1 -1)
2(1 -1)
2(1 -1)
2(1 -1)
2(1 -1)
2(1 -1)
2(1 -1)
2(1 -1)
2(1 -1)
)

// edgeNormals

280
(
2(0 1)
2(2 3)
2(4 5)
2(6 7)
2(8 9)
2(10 11)
2(12 13)
2(14 15)
2(16 17)
2(18 19)
2(20 21)
2(22 23)
2(24 25)
2(26 27)
2(28 29)
2(30 31)
2(32 33)
2(34 35)
2(36 37)
2(38 39)
2(40 41)
2(42 43)
2(44 45)
2(46 47)
2(48 49)
2(50 51)
2(52 53)
2(54 55)
2(56 57)
2(58 59)
2(60 61)
2(62 63)
2(64 65)
2(66 67)
2(68 69)
2(70 71)
2(72 73)
2(74 75)
2(76 77)
2(78 79)
2(80 81)
2(82 83)
2(84 85)
2(86 87)
2(88 89)
2(90 91)
2(92 93)
2(94 95)
2(96 97)
2(98 99)
2(100 101)
2(102 103)
2(104 105)
2(106 107)
2(108 109)
2(110 111)
2(112 113)
2(114 115)
2(116 117)
2(118 119)
2(120 121)
2(122 123)
2(124 125)
2(126 127)
2(128 129)
2(130 131)
2(132 133)
2(134 135)
2(136 137)
2(138 139)
2(140 141)
2(142 143)
2(144 145)
2(146 147)
2(148 149)
2(150 151)
2(152 153)
2(154 155)
2(156 157)
2(158 159)
2(160 161)
2(162 163)
2(164 165)
2(166 167)
2(168 169)
2(170 171)
2(172 173)
2(174 175)
2(176 177)
2(178 179)
2(180 181)
2(182 183)
2(184 185)
2(186 187)
2(188 189)
2(190 191)
2(192 193)
2(194 195)
2(196 197)
2(198 199)
2(200 201)
2(202 203)
2(204 205)
2(206 207)
2(208 209)
2(210 211)
2(212 213)
2(214 215)
2(216 217)
2(218 219)
2(220 221)
2(222 223)
2(224 225)
2(226 227)
2(228 229)
2(230 231)
2(232 233)
2(234 235)
2(236 237)
2(238 239)
2(240 241)
2(242 243)
2(244 245)
2(246 247)
2(248 249)
2(250 251)
2(252 253)
2(254 255)
2(256 257)
2(258 259)
2(260 261)
2(262 263)
2(264 265)
2(266 267)
2(268 269)
2(270 271)
2(272 273)
2(274 275)
2(276 277)
2(278 279)
2(280 281)
2(282 283)
2(284 285)
2(286 287)
2(288 289)
2(290 291)
2(292 293)
2(294 295)
2(296 297)
2(298 299)
2(300 301)
2(302 303)
2(304 305)
2(306 307)
2(308 309)
2(310 311)
2(312 313)
2(314 315)
2(316 317)
2(318 319)
2(320 321)
2(322 323)
2(324 325)
2(326 327)
2(328 329)
2(330 331)
2(332 333)
2(334 335)
2(336 337)
2(338 339)
2(340 341)
2(342 343)
2(344 345)
2(346 347)
2(348 349)
2(350 351)
2(352 353)
2(354 355)
2(356 357)
2(358 359)
2(360 361)
2(362 363)
2(364 365)
2(366 367)
2(368 369)
2(370 371)
2(372 373)
2(374 375)
2(376 377)
2(378 379)
2(380 381)
2(382 383)
2(384 385)
2(386 387)
2(388 389)
2(390 391)
2(392 393)
2(394 395)
2(396 397)
2(398 399)
2(400 401)
2(402 403)
2(404 405)
2(406 407)
2(408 409)
2(410 411)
2(412 413)
2(414 415)
2(416 417)
2(418 419)
2(420 421)
2(422 423)
2(424 425)
2(426 427)
2(428 429)
2(430 431)
2(432 433)
2(434 435)
2(436 437)
2(438 439)
2(440 441)
2(442 443)
2(444 445)
2(446 447)
2(448 449)
2(450 451)
2(452 453)
2(454 455)
2(456 457)
2(458 459)
2(460 461)
2(462 463)
2(464 465)
2(466 467)
2(468 469)
2(470 471)
2(472 473)
2(474 475)
2(476 477)
2(478 479)
2(480 481)
2(482 483)
2(484 485)
2(486 487)
2(488 489)
2(490 491)
2(492 493)
2(494 495)
2(496 497)
2(498 499)
2(500 501)
2(502 503)
2(504 505)
2(506 507)
2(508 509)
2(510 511)
2(512 513)
2(514 515)
2(516 517)
2(518 519)
2(520 521)
2(522 523)
2(524 525)
2(526 527)
2(528 529)
2(530 531)
2(532 533)
2(534 535)
2(536 537)
2(538 539)
2(540 541)
2(542 543)
2(544 545)
2(546 547)
2(548 549)
2(550 551)
2(552 553)
2(554 555)
2(556 557)
2(558 559)
)

// featurePointNormals

8
(
3(0 1 79)
3(16 17 19)
3(28 29 31)
3(54 55 59)
3(80 81 159)
3(96 97 99)
3(108 109 111)
3(134 135 139)
)

// featurePointEdges

8
(
3(39 143 0)
3(9 151 8)
3(15 255 14)
3(29 205 27)
3(79 81 40)
3(49 89 48)
3(55 231 54)
3(69 181 67)
)

// regionEdges

80
(
0
1
2
3
4
5
6
7
8
9
10
11
12
13
14
15
16
17
18
19
20
21
22
23
24
25
26
27
28
29
30
31
32
33
34
35
36
37
38
39
40
41
42
43
44
45
46
47
48
49
50
51
52
53
54
55
56
57
58
59
60
61
62
63
64
65
66
67
68
69
70
71
72
73
74
75
76
77
78
79
)



// ************************************************************************* //
