/*--------------------------------*- C++ -*----------------------------------*\
| =========                 |                                                 |
| \\      /  F ield         | OpenFOAM: The Open Source CFD Toolbox           |
|  \\    /   O peration     | Version:  4.x                                   |
|   \\  /    A nd           | Web:      www.OpenFOAM.org                      |
|    \\/     M anipulation  |                                                 |
\*---------------------------------------------------------------------------*/
FoamFile
{
    version     2.0;
    format      ascii;
    class       featureEdgeMesh;
    location    "constant/triSurface";
    object      channel.eMesh;
}
// * * * * * * * * * * * * * * * * * * * * * * * * * * * * * * * * * * * * * //


// points:

276
(
(0.05 0.05 -0.1)
(-0.05 0.05 -0.1)
(0.05 -0.05 -0.1)
(-0.05 -0.05 -0.1)
(0.05 0.05 0.4)
(-0.05 0.05 0.4)
(0.05 -0.05 0.4)
(-0.05 -0.05 0.4)
(0.04 0.05 -0.1)
(0.03 0.05 -0.1)
(0.01 0.05 -0.1)
(0.02 0.05 -0.1)
(0 0.05 -0.1)
(-0.02 0.05 -0.1)
(-0.01 0.05 -0.1)
(-0.03 0.05 -0.1)
(-0.04 0.05 -0.1)
(-0.05 0.04 -0.1)
(0.05 0.02 -0.1)
(0.05 0.01 -0.1)
(0.05 0 -0.1)
(0.05 -0.03 -0.1)
(0.05 -0.04 -0.1)
(0.04 -0.05 -0.1)
(0.03 -0.05 -0.1)
(0.02 -0.05 -0.1)
(0.01 -0.05 -0.1)
(0.05 -0.02 -0.1)
(0.05 -0.01 -0.1)
(-0.05 0.01 -0.1)
(-0.05 0.02 -0.1)
(-0.05 0 -0.1)
(-0.05 -0.01 -0.1)
(0 -0.05 -0.1)
(-0.01 -0.05 -0.1)
(-0.02 -0.05 -0.1)
(-0.05 -0.04 -0.1)
(-0.03 -0.05 -0.1)
(-0.04 -0.05 -0.1)
(-0.05 -0.03 -0.1)
(-0.05 -0.02 -0.1)
(-0.05 0.03 -0.1)
(0.05 0.03 -0.1)
(0.05 0.04 -0.1)
(0.04 0.05 0.4)
(0.03 0.05 0.4)
(0.02 0.05 0.4)
(0.01 0.05 0.4)
(0 0.05 0.4)
(-0.01 0.05 0.4)
(-0.02 0.05 0.4)
(-0.03 0.05 0.4)
(-0.04 0.05 0.4)
(-0.05 0.04 0.4)
(0.05 0.01 0.4)
(0.05 0.02 0.4)
(0.05 0 0.4)
(0.05 -0.04 0.4)
(0.05 -0.03 0.4)
(0.04 -0.05 0.4)
(0.02 -0.05 0.4)
(0.03 -0.05 0.4)
(0.01 -0.05 0.4)
(0.05 -0.02 0.4)
(0.05 -0.01 0.4)
(-0.05 0.02 0.4)
(-0.05 0.01 0.4)
(-0.05 0 0.4)
(-0.05 -0.01 0.4)
(-0.01 -0.05 0.4)
(0 -0.05 0.4)
(-0.02 -0.05 0.4)
(-0.05 -0.04 0.4)
(-0.04 -0.05 0.4)
(-0.03 -0.05 0.4)
(-0.05 -0.02 0.4)
(-0.05 -0.03 0.4)
(-0.05 0.03 0.4)
(0.05 0.03 0.4)
(0.05 0.04 0.4)
(0.05 0.05 0.39)
(0.05 0.05 0.38)
(-0.05 0.05 0.38)
(-0.05 0.05 0.39)
(-0.05 0.05 0.36)
(-0.05 0.05 0.37)
(-0.05 0.05 0.34)
(-0.05 0.05 0.35)
(-0.05 0.05 0.32)
(-0.05 0.05 0.33)
(0.05 0.05 0.25)
(0.05 0.05 0.24)
(0.05 0.05 0.22)
(0.05 0.05 0.21)
(0.05 0.05 0.23)
(-0.05 0.05 0.3)
(-0.05 0.05 0.31)
(-0.05 0.05 0.28)
(-0.05 0.05 0.29)
(-0.05 0.05 0.24)
(-0.05 0.05 0.25)
(-0.05 0.05 0.26)
(-0.05 0.05 0.27)
(-0.05 0.05 0.2)
(-0.05 0.05 0.21)
(-0.05 0.05 0.22)
(-0.05 0.05 0.16)
(-0.05 0.05 0.17)
(-0.05 0.05 0.18)
(-0.05 0.05 0.19)
(-0.05 0.05 0.23)
(0.05 0.05 0.26)
(0.05 0.05 0.3)
(0.05 0.05 0.29)
(0.05 0.05 0.28)
(0.05 0.05 0.27)
(0.05 0.05 0.34)
(0.05 0.05 0.33)
(0.05 0.05 0.37)
(0.05 0.05 0.36)
(0.05 0.05 0.35)
(0.05 0.05 0.32)
(0.05 0.05 0.31)
(0.05 0.05 0.09)
(0.05 0.05 0.08)
(0.05 0.05 0.07)
(0.05 0.05 0.06)
(0.05 0.05 0.05)
(-0.05 0.05 0.12)
(-0.05 0.05 0.13)
(-0.05 0.05 0.14)
(-0.05 0.05 0.08)
(-0.05 0.05 0.09)
(-0.05 0.05 0.1)
(-0.05 0.05 0.11)
(-0.05 0.05 0.04)
(-0.05 0.05 0.05)
(-0.05 0.05 0.06)
(-0.05 0.05 -1.38778e-17)
(-0.05 0.05 0.01)
(-0.05 0.05 0.02)
(-0.05 0.05 0.03)
(-0.05 0.05 0.07)
(0.05 0.05 -0.07)
(0.05 0.05 -0.08)
(0.05 0.05 -0.09)
(-0.05 0.05 -0.02)
(-0.05 0.05 -0.01)
(-0.05 0.05 -0.04)
(-0.05 0.05 -0.03)
(-0.05 0.05 -0.06)
(-0.05 0.05 -0.05)
(-0.05 0.05 -0.08)
(-0.05 0.05 -0.07)
(-0.05 0.05 -0.09)
(0.05 0.05 -0.03)
(0.05 0.05 -0.04)
(0.05 0.05 -0.05)
(0.05 0.05 -0.06)
(0.05 0.05 0.04)
(0.05 0.05 0.03)
(0.05 0.05 0.02)
(0.05 0.05 0.01)
(0.05 0.05 -1.38778e-17)
(0.05 0.05 -0.01)
(0.05 0.05 -0.02)
(-0.05 0.05 0.15)
(0.05 0.05 0.13)
(0.05 0.05 0.12)
(0.05 0.05 0.11)
(0.05 0.05 0.1)
(0.05 0.05 0.2)
(0.05 0.05 0.18)
(0.05 0.05 0.17)
(0.05 0.05 0.19)
(0.05 0.05 0.16)
(0.05 0.05 0.15)
(0.05 0.05 0.14)
(-0.05 -0.05 0.38)
(-0.05 -0.05 0.39)
(-0.05 -0.05 0.24)
(-0.05 -0.05 0.25)
(-0.05 -0.05 0.21)
(-0.05 -0.05 0.22)
(-0.05 -0.05 0.23)
(-0.05 -0.05 0.26)
(-0.05 -0.05 0.29)
(-0.05 -0.05 0.3)
(-0.05 -0.05 0.28)
(-0.05 -0.05 0.27)
(-0.05 -0.05 0.33)
(-0.05 -0.05 0.34)
(-0.05 -0.05 0.37)
(-0.05 -0.05 0.36)
(-0.05 -0.05 0.35)
(-0.05 -0.05 0.32)
(-0.05 -0.05 0.31)
(-0.05 -0.05 0.08)
(-0.05 -0.05 0.09)
(-0.05 -0.05 0.07)
(-0.05 -0.05 0.06)
(-0.05 -0.05 0.05)
(-0.05 -0.05 -0.08)
(-0.05 -0.05 -0.07)
(-0.05 -0.05 -0.09)
(-0.05 -0.05 -0.04)
(-0.05 -0.05 -0.03)
(-0.05 -0.05 -0.05)
(-0.05 -0.05 -0.06)
(-0.05 -0.05 0.04)
(-0.05 -0.05 0.03)
(-0.05 -0.05 0.02)
(-0.05 -0.05 0.01)
(-0.05 -0.05 -1.38778e-17)
(-0.05 -0.05 -0.01)
(-0.05 -0.05 -0.02)
(-0.05 -0.05 0.12)
(-0.05 -0.05 0.13)
(-0.05 -0.05 0.11)
(-0.05 -0.05 0.1)
(-0.05 -0.05 0.2)
(-0.05 -0.05 0.17)
(-0.05 -0.05 0.18)
(-0.05 -0.05 0.19)
(-0.05 -0.05 0.16)
(-0.05 -0.05 0.14)
(-0.05 -0.05 0.15)
(0.05 -0.05 0.38)
(0.05 -0.05 0.39)
(0.05 -0.05 0.24)
(0.05 -0.05 0.25)
(0.05 -0.05 0.21)
(0.05 -0.05 0.22)
(0.05 -0.05 0.23)
(0.05 -0.05 0.26)
(0.05 -0.05 0.29)
(0.05 -0.05 0.3)
(0.05 -0.05 0.28)
(0.05 -0.05 0.27)
(0.05 -0.05 0.33)
(0.05 -0.05 0.34)
(0.05 -0.05 0.37)
(0.05 -0.05 0.36)
(0.05 -0.05 0.35)
(0.05 -0.05 0.32)
(0.05 -0.05 0.31)
(0.05 -0.05 0.08)
(0.05 -0.05 0.09)
(0.05 -0.05 0.07)
(0.05 -0.05 0.06)
(0.05 -0.05 0.05)
(0.05 -0.05 -0.08)
(0.05 -0.05 -0.07)
(0.05 -0.05 -0.09)
(0.05 -0.05 -0.04)
(0.05 -0.05 -0.03)
(0.05 -0.05 -0.05)
(0.05 -0.05 -0.06)
(0.05 -0.05 0.04)
(0.05 -0.05 0.03)
(0.05 -0.05 0.02)
(0.05 -0.05 0.01)
(0.05 -0.05 -1.38778e-17)
(0.05 -0.05 -0.01)
(0.05 -0.05 -0.02)
(0.05 -0.05 0.12)
(0.05 -0.05 0.13)
(0.05 -0.05 0.11)
(0.05 -0.05 0.1)
(0.05 -0.05 0.2)
(0.05 -0.05 0.17)
(0.05 -0.05 0.18)
(0.05 -0.05 0.19)
(0.05 -0.05 0.16)
(0.05 -0.05 0.14)
(0.05 -0.05 0.15)
)


// edges:

280
(
(8 0)
(9 8)
(10 11)
(12 10)
(11 9)
(13 14)
(15 13)
(16 15)
(1 16)
(17 1)
(14 12)
(18 19)
(19 20)
(21 22)
(2 23)
(22 2)
(24 25)
(25 26)
(23 24)
(27 21)
(20 28)
(28 27)
(29 30)
(31 29)
(32 31)
(33 34)
(34 35)
(3 36)
(37 38)
(38 3)
(35 37)
(39 40)
(40 32)
(36 39)
(26 33)
(30 41)
(41 17)
(42 18)
(43 42)
(0 43)
(4 44)
(44 45)
(46 47)
(47 48)
(45 46)
(49 50)
(50 51)
(51 52)
(52 5)
(5 53)
(48 49)
(54 55)
(56 54)
(57 58)
(59 6)
(6 57)
(60 61)
(62 60)
(61 59)
(58 63)
(64 56)
(63 64)
(65 66)
(66 67)
(67 68)
(69 70)
(71 69)
(72 7)
(73 74)
(7 73)
(74 71)
(75 76)
(68 75)
(76 72)
(70 62)
(77 65)
(53 77)
(55 78)
(78 79)
(79 4)
(80 81)
(4 80)
(82 83)
(84 85)
(85 82)
(86 87)
(88 89)
(89 86)
(87 84)
(83 5)
(90 91)
(92 93)
(94 92)
(91 94)
(95 96)
(97 98)
(98 95)
(99 100)
(100 101)
(101 102)
(102 97)
(103 104)
(104 105)
(106 107)
(107 108)
(108 109)
(109 103)
(105 110)
(110 99)
(96 88)
(111 90)
(112 113)
(113 114)
(115 111)
(114 115)
(116 117)
(81 118)
(118 119)
(120 116)
(119 120)
(117 121)
(122 112)
(121 122)
(123 124)
(124 125)
(125 126)
(126 127)
(128 129)
(129 130)
(131 132)
(132 133)
(133 134)
(134 128)
(135 136)
(136 137)
(138 139)
(139 140)
(140 141)
(141 135)
(137 142)
(142 131)
(143 144)
(144 145)
(145 0)
(146 147)
(148 149)
(149 146)
(150 151)
(152 153)
(153 150)
(151 148)
(1 154)
(154 152)
(147 138)
(155 156)
(156 157)
(157 158)
(158 143)
(127 159)
(159 160)
(160 161)
(161 162)
(162 163)
(163 164)
(164 165)
(165 155)
(130 166)
(166 106)
(167 168)
(168 169)
(169 170)
(170 123)
(93 171)
(172 173)
(174 172)
(171 174)
(173 175)
(176 177)
(177 167)
(175 176)
(178 179)
(179 7)
(180 181)
(182 183)
(183 184)
(184 180)
(181 185)
(186 187)
(188 186)
(185 189)
(189 188)
(190 191)
(192 178)
(193 192)
(191 194)
(194 193)
(195 190)
(187 196)
(196 195)
(197 198)
(199 197)
(200 199)
(201 200)
(202 203)
(204 202)
(3 204)
(205 206)
(207 205)
(208 207)
(203 208)
(209 201)
(210 209)
(211 210)
(212 211)
(213 212)
(214 213)
(215 214)
(206 215)
(216 217)
(218 216)
(219 218)
(198 219)
(220 182)
(221 222)
(222 223)
(223 220)
(224 221)
(225 226)
(217 225)
(226 224)
(227 228)
(228 6)
(229 230)
(231 232)
(232 233)
(233 229)
(230 234)
(235 236)
(237 235)
(234 238)
(238 237)
(239 240)
(241 227)
(242 241)
(240 243)
(243 242)
(244 239)
(236 245)
(245 244)
(246 247)
(248 246)
(249 248)
(250 249)
(251 252)
(253 251)
(2 253)
(254 255)
(256 254)
(257 256)
(252 257)
(258 250)
(259 258)
(260 259)
(261 260)
(262 261)
(263 262)
(264 263)
(255 264)
(265 266)
(267 265)
(268 267)
(247 268)
(269 231)
(270 271)
(271 272)
(272 269)
(273 270)
(274 275)
(266 274)
(275 273)
)

// * * * * * * * * * * * * * * * * * * * * * * * * * * * * * * * * * * * * * //


// ************************************************************************* //
